  
       XFOIL         Version 6.99
  
 Calculated polar for: NACA 1405                                       
  
 1 1 Reynolds number fixed          Mach number fixed         
  
 xtrf =   1.000 (top)        1.000 (bottom)  
 Mach =   0.044     Re =     0.188 e 6     Ncrit =   9.000
  
   alpha    CL        CD       CDp       CM     Top_Xtr  Bot_Xtr
  ------ -------- --------- --------- -------- -------- --------
   1.913   0.3101   0.00821   0.00287  -0.0262   0.9712   1.0000
