  
       XFOIL         Version 6.99
  
 Calculated polar for: NACA 1405                                       
  
 1 1 Reynolds number fixed          Mach number fixed         
  
 xtrf =   1.000 (top)        1.000 (bottom)  
 Mach =   0.023     Re =     0.100 e 6     Ncrit =   9.000
  
   alpha    CL        CD       CDp       CM     Top_Xtr  Bot_Xtr
  ------ -------- --------- --------- -------- -------- --------
  26.093   1.0900   0.35221   0.34745  -0.1553   0.0133   1.0000
